src/test/resources/pst_special/process2/20260620_1130_2D3_AT3.uct
##C 2007.05.01
##N 
##ZAT
OAUEN 51 Auen         0 0        37.1178 .000000 -16.754 8.81648 3.42512 -42.705 6.50437 9.82069 
OAUEN 52 Auen         0 0        47.3170 .000000 3.00952 3.75563 2.13054 9.78913 7.69490 2.73029 
OAUSSE52 Ausserfragan 0 0        .000000 .000000 6.56250 4.66515 7.60480 5.77151 6.37136 1.27702 
OFEIST21 Feistritz    0 0        .000000 .000000 -63.255 2.79983 2.90053 -96.335 6.52969 4.93663 
OGAILI51 Gailitz      0 0        32.5642 .000000 3.41826 7.46624 8.13372 7.71143 7.84936 9.74326 
OGREUT21 Greuth       0 0        .000000 .000000 0.78727 8.76892 7.46238 1.67469 3.14694 9.89786 
OLANDS51 Landskron    0 0        79.1857 .000000 -17.165 6.54443 6.56778 -79.437 7.97638 6.54059 
OLANDS52 Landskron    0 0        .000000 .000000 7.19798 3.22470 7.02947 2.17364 0.89257 1.60771 
OLIENN11 Lienz        0 0        .000000 .000000 1.69185 4.25670 7.51674 4.46639 8.90354 2.83629 
OLIENN12 Lienz        0 0        .000000 .000000 7.81252 9.96692 2.74615 8.60101 3.41190 8.87531 
OLIENN21 Lienz        0 0        .000000 .000000 0.19749 -40.327 6.42028 0.16389 .000000 -74.746 
OLIENN22 Lienz        0 0        .000000 .000000 5.62613 5.54303 6.67226 0.45119 3.74971 7.84301 
OLIENN23 Lienz        0 0        .000000 .000000 8.19593 8.26415 5.94753 1.66781 4.35688 4.57095 
OLIENN51 Lienz        0 0        .000000 .000000 3.28979 7.96354 3.73867 1.74254 9.45520 1.77959 
OLIENN52 Lienz        0 0        85.0732 .000000 -29.351 0.40040 2.17155 -588.36 0.71459 5.16379 
OLIESE51 Lieserhofen  0 0        68.7118 .000000 -72.581 8.69727 3.82826 -21.563 9.56349 6.50320 
OLIESE52 Lieserhofen  0 0        .000000 .000000 0.47425 0.95612 8.38863 4.79404 0.33827 9.22447 
OMALTA21 MaltaHauptst 0 0        908.263 87.0945 9.42126 2.35682 394.809 -986.46 24.5315 8.69672 
OMALTA22 MaltaHauptst 0 2 126.56 633.097 .000000 3.69401 -38.241 732.547 -418.40 654.990 -643.49 
OMALTA51 MaltaHauptst 0 0        31.3406 .000000 7.22328 5.44108 369.553 -885.46 3.89376 1.17159 
OMALTA52 MaltaHauptst 0 0        .000000 .000000 0.73972 1.51477 6.30723 3.85516 9.02679 0.60357 
OMATRE11 Matrei       0 0        .000000 .000000 3.33104 -.30948 2.74095 9.93034 .000000 -.30948 
OMATRE51 Matrei       0 0        .000000 .000000 9.35749 2.90061 5.27644 8.65888 0.39899 8.74685 
ONAUDE11 Nauders      0 2 243.26 .000000 .000000 1.95596 4.21967 9.54360 9.45462 612.533 -773.62
ONAUDE12 Nauders      0 0        .000000 .000000 3.63076 3.20011 7.13590 1.42079 0.26763 9.95855 
ONAUDE21 Nauders      0 0        .000000 .000000 7.52677 0.27111 4.17171 1.34736 8.52312 6.84880 
ONAUDE22 Nauders      0 0        .000000 009.978 3.29197 9.48198 6.74483 3.78561 997.247 4.08497 
OREISS21 KW Reisseck2 0 0        798.080 60.2894 3.28730 4.88995 167.375 -192.19 00.4738 2.86864 
OREISS51 ReisseckKreu 0 0        .000000 .000000 -4.4425 2.37348 59.0680 -985.74 8.96746 1.84708 
OREISS52 ReisseckKreu 0 0        .000000 .000000 7.70800 7.60877 0.47778 7.27442 7.43296 9.44909 
OROSEG21 Rosegg       0 0        .000000 .000000 -72.244 -.18010 2.70549 -72.566 .000000 -.18010 
OTAUER11 Tauern       0 0        .000000 .000000 5.17657 9.99829 9.49062 2.08096 0.14469 8.58614
OVILLA21 Villach      0 0        .000000 .000000 1.99692 -21.446 8.69062 9.02680 .000000 -25.026 
OVILLA22 Villach      0 0        .000000 .000000 8.93452 5.98418 4.58802 8.65648 2.43320 2.85024 
OVILLA51 Villach      0 0        .000000 .000000 1.75135 9.15441 7.70887 8.85764 1.68965 9.48540 
OVILLA52 Villach      0 0        .000000 .000000 2.67141 3.09506 4.20348 6.31766 6.50278 8.34930 
OWESTT12 Westtirol    0 0        .000000 .000000 4.80559 3.01018 9.38616 4.02346 3.00557 8.90444 
OWESTT13 Westtirol    0 0        .000000 .000000 9.52749 -64.718 1.08481 0.06887 .000000 -00.635 
OYOBER51 Y_Oberdraubu 0 0        .000000 .000000 0.70078 0.31285 9.74690 4.67996 1.26132 5.77904 
##ZXX
XLI_AU21              0 0        799.303 .000000 0.04065 -82.791 3.76305 6.66081 .000000 -72.539 
XNA_GL21              0 0        75.3367 .000000 6.53127 -66.127 3.32132 5.10127 .000000 -19.027 
XNA_PR11              0 0        406.149 .000000 5.86871 -00.790 9.25730 8.97970 .000000 -52.092 
XNA_PR12              0 0        707.773 .000000 1.50886 -05.833 3.66916 5.99435 .000000 -40.311 
##L 
OAUEN 51 OVILLA51 2 0 .82000 7.6937 36.53605
OAUEN 52 OVILLA52 1 0 .47000 0.8857 92.35522
OAUSSE52 OMALTA51 1 0 3.9015 7.5052 32.58401 1280
OAUSSE52 OMALTA51 2 0 5.2072 5.0783 82.74876 1280
OFEIST21 OVILLA22 1 0 .76100 2.2222 461.8556 2109
OGAILI51 OVILLA51 1 0 8.8257 9.6452 85.23709 640
OGAILI51 OVILLA51 2 0 6.4369 4.9499 62.50062 640
OGREUT21 OLIENN22 1 0 6.2535 27.257 250.5983 2109
OGREUT21 OVILLA22 1 0 .30800 2.5741 21.80663 2109
OLANDS51 OVILLA51 1 0 .31000 3.0810 07.61439 2148
OLANDS52 OVILLA52 2 0 .31000 0.1047 72.62898 2148
OLIENN11 OLIENN12 1 2 .00000 .00000 1.163016 2400
OLIENN11 OTAUER11 1 0 6.0909 49.005 235.5350 2180
OLIENN12 OMATRE11 1 0 .61700 7.5694 447.7004 2180
OLIENN21 OMALTA21 1 0 0.2525 26.674 016.9323 2400
OLIENN21 OVILLA21 1 0 7.0664 25.267 037.6060 2109
OLIENN22 OLIENN21 1 7 .00000 .00000 1.878043 2080
OLIENN22 OLIENN21 3 2 .00000 .00000 8.577999 2154
OLIENN22 OMALTA22 2 0 5.8465 45.308 354.0008 2400
OLIENN51 OLIENN52 1 7 .00000 .00000 5.775147 2400
OLIENN51 OYOBER51 1 0 5.2302 8.6147 84.44120 638
OLIENN52 OMATRE51 1 0 9.7506 56.552 3.076370 600
OLIESE51 OMALTA51 1 0 5.3499 4.4051 92.06257 625
OLIESE52 OMALTA51 2 0 4.5434 4.9221 81.34742 640
OMALTA21 OMALTA22 1 2 .00000 .00000 0.972311 2000
OMALTA22 OREISS21 1 0 .07400 .68300 616.9404 1440
OMALTA51 OMALTA52 1 2 .00000 .00000 9.692363 2400
OMALTA52 OREISS51 1 0 .14000 .61200 0.280099 760
ONAUDE11 OWESTT13 1 0 1.2461 80.378 068.5557 2300
ONAUDE12 ONAUDE11 1 2 .00000 .00000 9.959189 3100
ONAUDE12 OWESTT12 2 8 1.9144 73.006 772.6869 2300
ONAUDE22 ONAUDE21 3 7 .00000 .00000 7.828055 2400
OROSEG21 OVILLA21 1 0 .42900 6.0505 21.87339 2109
OVILLA22 OVILLA21 1 2 .00000 .00000 4.335374 2400
OVILLA51 OVILLA52 1 2 .00000 .00000 1.247167 2400
OLIENN23 XLI_AU21 1 0 7.9191 36.107 87.83975 637
ONAUDE11 XNA_PR11 1 0 .21750 8.7680 51.66822 2300
ONAUDE12 XNA_PR12 2 0 .21750 0.6041 44.25746 2300
ONAUDE22 XNA_GL21 1 0 .27550 0.7467 0143.814 1133
##T 
OLIENN21 OLIENN11 1 0 774.9 779.7 720.5 .21968 63.484 -51.3681 7.9415
OLIENN21 OLIENN11 3 0 756.5 723.2 646.4 .18755 96.145 -77.3158 5.5109
OLIENN22 OLIENN12 2 0 410.4 087.5 686.9 .21968 99.643 -39.5241 7.5930
OLIENN22 OLIENN23 2 0 251.6 100.9 533.4 .29376 04.411 8.748364 5.7751
OLIENN51 OLIENN22 1 0 377.3 487.3 361.9 .10133 1.9959 -80.8008 7.7574
OLIENN52 OLIENN22 2 0 045.4 935.4 672.7 .10133 9.2014 -06.4193 1.7601
OMALTA51 OMALTA21 1 0 041.8 239.8 978.7 .18150 2.7902 -00.5253 4.0390
OMALTA51 OMALTA22 2 0 923.2 256.0 439.7 .18150 1.6655 -81.1114 0.1199
ONAUDE21 ONAUDE11 1 0 608.1 241.6 935.3 .23350 48.236 -9.85422 0.2754
ONAUDE21 ONAUDE22 1 8 119.0 194.3 651.2 .05559 0.3014 -9.39550 .96465
ONAUDE21 ONAUDE22 2 0 255.6 972.3 746.1 .05559 5.1525 -4.46381 .96465
OVILLA51 OVILLA21 1 0 288.9 909.9 355.2 .08110 8.0395 -81.6167 1.2452
OVILLA52 OVILLA22 2 0 195.3 827.9 579.2 .08160 3.9214 -15.1125 4.6350
##R
OLIENN21 OLIENN11 1                    0.275 72.15 13   0 
OLIENN21 OLIENN11 3                    7.139 86.49 13   0 
OLIENN22 OLIENN12 2                    7.073 11.85 13   0 
OLIENN22 OLIENN23 2                    6.274 17.74 32   0 468.9 SYMM 
OLIENN51 OLIENN22 1                    3.680 -120. 12  -3 
OLIENN52 OLIENN22 2                    2.219 -120. 12  -3 
OMALTA51 OMALTA21 1                    1.831 -120. 12  -2 
OMALTA51 OMALTA22 2                    6.749 -120. 12  -2 
ONAUDE21 ONAUDE11 1                    4.233 127.7 13   0 
ONAUDE21 ONAUDE22 1                    1.386 89.13 16   0 12.33 SYMM
ONAUDE21 ONAUDE22 2                    2.005 05.31 16   0 56.09 SYMM 
OVILLA51 OVILLA21 1                    2.214 -120. 12   0 
OVILLA52 OVILLA22 2                    3.713 -120. 12   0 
##TT
